

 + + + + + + + + + + + + + + + + + + + + + + + + + + + + + + + + + + + + + + + +
 + + + + + + + + + + + + + + + + + + + + + + + + + + + + + + + + + + + + + + + +
 + +                                                                         + +
 + +                      ASPEN PLUS CALCULATION REPORT                      + +
 + +                                                                         + +
 + + + + + + + + + + + + + + + + + + + + + + + + + + + + + + + + + + + + + + + +
 + + + + + + + + + + + + + + + + + + + + + + + + + + + + + + + + + + + + + + + +

 ASPEN PLUS IS A TRADEMARK OF           HOTLINE:
 ASPEN TECHNOLOGY, INC.                 U.S.A. 888/996-7100
 781/221-6400                           EUROPE (44) 1189-226555

 PLATFORM: WINDOWS                                       FEBRUARY 13, 2020   
 VERSION: 36.0   Build 254 Patchlevel 4                  THURSDAY    
 INSTALLATION:                                           11:58:32 P.M.       

 ASPEN PLUS   PLAT: WINDOWS   VER: 36.0                   02/13/2020  PAGE    I
                          ASPEN DISTILLATION MODELS                             



      ASPEN PLUS (R) IS A PROPRIETARY PRODUCT OF ASPEN TECHNOLOGY, INC.
      (ASPENTECH), AND MAY BE USED ONLY UNDER AGREEMENT WITH ASPENTECH.
      RESTRICTED RIGHTS LEGEND:  USE, REPRODUCTION, OR DISCLOSURE BY THE
      U.S. GOVERNMENT IS SUBJECT TO RESTRICTIONS SET FORTH IN 
      (i) FAR 52.227-14, Alt. III, (ii) FAR 52.227-19, (iii) DFARS 
      252.227-7013(c)(1)(ii), or (iv) THE ACCOMPANYING LICENSE AGREEMENT,
      AS APPLICABLE. FOR PURPOSES OF THE FAR, THIS SOFTWARE SHALL BE DEEMED
      TO BE "UNPUBLISHED" AND LICENSED WITH DISCLOSURE PROHIBITIONS.
      CONTRACTOR/SUBCONTRACTOR: ASPEN TECHNOLOGY, INC. 20 CROSBY DRIVE,
      BEDFORD, MA 01730.
                               TABLE OF CONTENTS                                


            RUN CONTROL SECTION....................................  1
                 RUN CONTROL INFORMATION...........................  1
                 DESCRIPTION.......................................  1

            FLOWSHEET SECTION......................................  2
                 FLOWSHEET CONNECTIVITY BY STREAMS.................  2
                 FLOWSHEET CONNECTIVITY BY BLOCKS..................  2
                 COMPUTATIONAL SEQUENCE............................  2
                 OVERALL FLOWSHEET BALANCE.........................  2

            PHYSICAL PROPERTIES SECTION............................  3
                 COMPONENTS........................................  3

            U-O-S BLOCK SECTION....................................  4
                 BLOCK:  B1       MODEL: DUPL......................  4
                 BLOCK:  B2       MODEL: DSTWU.....................  4
                 BLOCK:  B3       MODEL: DISTL.....................  5
                 BLOCK:  B4       MODEL: RADFRAC...................  6

            STREAM SECTION......................................... 11
                 1 10 2 3 4........................................ 11
                 5 6 7 8 9......................................... 12

            PROBLEM STATUS SECTION................................. 13
                 BLOCK STATUS...................................... 13
 ASPEN PLUS   PLAT: WINDOWS   VER: 36.0                   02/13/2020  PAGE 1   
                          ASPEN DISTILLATION MODELS                             
                              RUN CONTROL SECTION                               

 RUN CONTROL INFORMATION                 
 -----------------------

 THIS COPY OF ASPEN PLUS LICENSED TO NORTH CAROLINA STATE UNI        

 TYPE OF RUN: NEW 

 INPUT FILE NAME: _1237deq.inm

 OUTPUT PROBLEM DATA FILE NAME: _1237deq 
 LOCATED IN:                    


 PDF SIZE USED FOR INPUT TRANSLATION:
   NUMBER OF FILE RECORDS (PSIZE) =     0
   NUMBER OF IN-CORE RECORDS      =   256
 PSIZE NEEDED FOR SIMULATION    =   256

 CALLING PROGRAM NAME:          apmain  
 LOCATED IN: C:\Program Files (x86)\AspenTech\Aspen Plus V10.0\Engine\\xeq

 SIMULATION REQUESTED FOR ENTIRE FLOWSHEET

 DESCRIPTION                             
 -----------

        Specialty Chemicals Simulation with Metric Units : C, atm, kg/hr,   
        kmol/hr, kcal/hr, l/hr. Property Method: NRTL Flow basis for        
        input: Mass Stream report composition: Mass flow                    
 ASPEN PLUS   PLAT: WINDOWS   VER: 36.0                   02/13/2020  PAGE 2   
                          ASPEN DISTILLATION MODELS                             
                               FLOWSHEET SECTION                                

 FLOWSHEET CONNECTIVITY BY STREAMS       
 ---------------------------------

   STREAM     SOURCE     DEST           STREAM     SOURCE     DEST
   1          ----       B1             2          B1         B2      
   3          B1         B3             4          B1         B4      
   5          B2         ----           6          B2         ----    
   7          B3         ----           8          B3         ----    
   9          B4         ----           10         B4         ----    

 FLOWSHEET CONNECTIVITY BY BLOCKS        
 --------------------------------

   BLOCK        INLETS                         OUTLETS
   B1           1                              2 3 4                       
   B2           2                              5 6                         
   B3           3                              7 8                         
   B4           4                              9 10                        

 COMPUTATIONAL SEQUENCE                  
 ----------------------

 SEQUENCE USED WAS:
    B1 B2 B3 B4                                                            

 OVERALL FLOWSHEET BALANCE               
 -------------------------

                      ***  MASS AND ENERGY BALANCE  ***
                                    IN              OUT        RELATIVE DIFF.
    CONVENTIONAL COMPONENTS (KMOL/HR )
       MEOH                      50.0000         150.000       -0.666667    
       H2O                       50.0000         150.000       -0.666667    
       ETOH                      0.00000         0.00000         0.00000    
    TOTAL BALANCE
       MOLE(KMOL/HR )            100.000         300.000       -0.666667    
       MASS(KG/HR   )            2502.87         7508.62       -0.666667    
       ENTHALPY(KCAL/HR )      -0.627587E+07   -0.184272E+08    0.659423    

                      ***  CO2 EQUIVALENT SUMMARY ***
    FEED STREAMS CO2E             0.00000      KG/HR           
    PRODUCT STREAMS CO2E          0.00000      KG/HR           
    NET STREAMS CO2E PRODUCTION   0.00000      KG/HR           
    UTILITIES CO2E PRODUCTION     0.00000      KG/HR           
    TOTAL CO2E PRODUCTION         0.00000      KG/HR           
 ASPEN PLUS   PLAT: WINDOWS   VER: 36.0                   02/13/2020  PAGE 3   
                          ASPEN DISTILLATION MODELS                             
                          PHYSICAL PROPERTIES SECTION                           

 COMPONENTS                              
 ----------

  ID       TYPE  ALIAS          NAME
   MEOH     C     CH4O           METHANOL                        
   H2O      C     H2O            WATER                           
   ETOH     C     C2H6O-2        ETHANOL                         
 ASPEN PLUS   PLAT: WINDOWS   VER: 36.0                   02/13/2020  PAGE 4   
                          ASPEN DISTILLATION MODELS                             
                              U-O-S BLOCK SECTION                               

 BLOCK:  B1       MODEL: DUPL            
 ----------------------------
   INLET STREAM:          1       
   OUTLET STREAMS:        2           3           4       

 BLOCK:  B2       MODEL: DSTWU           
 -----------------------------
   INLET STREAM:          2       
   CONDENSER OUTLET:      5       
   REBOILER OUTLET:       6       
   PROPERTY OPTION SET:   NRTL      RENON (NRTL) / IDEAL GAS                    

                      ***  MASS AND ENERGY BALANCE  ***
                                    IN              OUT        RELATIVE DIFF.
    TOTAL BALANCE
       MOLE(KMOL/HR )            100.000         100.000         0.00000    
       MASS(KG/HR   )            2502.87         2502.87         0.00000    
       ENTHALPY(KCAL/HR )      -0.627587E+07   -0.614196E+07   -0.213375E-01

                      ***  CO2 EQUIVALENT SUMMARY ***
    FEED STREAMS CO2E             0.00000      KG/HR           
    PRODUCT STREAMS CO2E          0.00000      KG/HR           
    NET STREAMS CO2E PRODUCTION   0.00000      KG/HR           
    UTILITIES CO2E PRODUCTION     0.00000      KG/HR           
    TOTAL CO2E PRODUCTION         0.00000      KG/HR           

                          ***  INPUT DATA  ***
    HEAVY KEY COMPONENT                                         H2O     
    RECOVERY FOR HEAVY KEY                                   0.050000   
    LIGHT KEY COMPONENT                                         MEOH    
    RECOVERY FOR LIGHT KEY                                   0.95000    
    TOP STAGE PRESSURE (ATM     )                            1.00000    
    BOTTOM STAGE PRESSURE (ATM     )                         1.40000    
    REFLUX RATIO                                             3.00000    
    DISTILLATE VAPOR FRACTION                                0.0        
 ASPEN PLUS   PLAT: WINDOWS   VER: 36.0                   02/13/2020  PAGE 5   
                          ASPEN DISTILLATION MODELS                             
                              U-O-S BLOCK SECTION                               

 BLOCK:  B2       MODEL: DSTWU (CONTINUED)           

                           ***  RESULTS  ***
    DISTILLATE TEMP.  (C       )                            65.3006     
    BOTTOM TEMP.  (C       )                               101.939      
    MINIMUM REFLUX RATIO                                     0.40150    
    ACTUAL REFLUX RATIO                                      3.00000    
    MINIMUM STAGES                                           4.43159    
    ACTUAL EQUILIBRIUM STAGES                                5.41967    
    NUMBER OF ACTUAL STAGES ABOVE FEED                       3.38312    
    DIST. VS FEED                                            0.50000    
    CONDENSER COOLING REQUIRED (KCAL/HR )            1,721,240.         
    NET CONDENSER DUTY (KCAL/HR )                   -1,721,240.         
    REBOILER HEATING REQUIRED (KCAL/HR )             1,855,160.         
    NET REBOILER DUTY (KCAL/HR )                     1,855,160.         

 BLOCK:  B3       MODEL: DISTL           
 -----------------------------
   INLET STREAM:          3       
   CONDENSER OUTLET:      7       
   REBOILER OUTLET:       8       
   PROPERTY OPTION SET:   NRTL      RENON (NRTL) / IDEAL GAS                    

                      ***  MASS AND ENERGY BALANCE  ***
                                    IN              OUT        RELATIVE DIFF.
    TOTAL BALANCE
       MOLE(KMOL/HR )            100.000         100.000         0.00000    
       MASS(KG/HR   )            2502.87         2502.87        0.602903E-07
       ENTHALPY(KCAL/HR )      -0.627587E+07   -0.613770E+07   -0.220164E-01

                      ***  CO2 EQUIVALENT SUMMARY ***
    FEED STREAMS CO2E             0.00000      KG/HR           
    PRODUCT STREAMS CO2E          0.00000      KG/HR           
    NET STREAMS CO2E PRODUCTION   0.00000      KG/HR           
    UTILITIES CO2E PRODUCTION     0.00000      KG/HR           
    TOTAL CO2E PRODUCTION         0.00000      KG/HR           

                          ***  INPUT DATA  ***
    THEORETICAL STAGES                                       8
    FEED STAGE NO. FROM TOP                                  4
    REFLUX RATIO                                             3.00000    
    TOP STAGE PRESSURE (ATM     )                            1.00000    
    BOTTOM STAGE PRESSURE (ATM     )                         1.40000    
    DISTILLATE TO FEED RATIO                                 0.50000    
    CONDENSER TYPE: TOTAL CONDENSER
 ASPEN PLUS   PLAT: WINDOWS   VER: 36.0                   02/13/2020  PAGE 6   
                          ASPEN DISTILLATION MODELS                             
                              U-O-S BLOCK SECTION                               

 BLOCK:  B3       MODEL: DISTL (CONTINUED)           

                           ***  RESULTS  ***
    FEED-QUALITY                                            -0.12387    
    FEED STAGE TEMPERATURE (C       )                       67.4068     
    TOP STAGE TEMPERATURE (C       )                        64.8665     
    BOTTOM STAGE TEMPERATURE (C       )                    105.815      
    CONDENSER COOLING REQUIRED (KCAL/HR )            1,705,820.         
    NET CONDENSER DUTY (KCAL/HR )                   -1,705,820.         
    REBOILER HEATING REQUIRED (KCAL/HR )             1,844,000.         
    NET REBOILER DUTY (KCAL/HR )                     1,844,000.         

 BLOCK:  B4       MODEL: RADFRAC         
 -------------------------------
    INLETS   - 4        STAGE   4
    OUTLETS  - 9        STAGE   1
               10       STAGE   8
   PROPERTY OPTION SET:   NRTL      RENON (NRTL) / IDEAL GAS                    

                      ***  MASS AND ENERGY BALANCE  ***
                                    IN              OUT        RELATIVE DIFF.
    TOTAL BALANCE
       MOLE(KMOL/HR )            100.000         100.000         0.00000    
       MASS(KG/HR   )            2502.87         2502.87        0.545252E-12
       ENTHALPY(KCAL/HR )      -0.627587E+07   -0.614752E+07   -0.204522E-01

                      ***  CO2 EQUIVALENT SUMMARY ***
    FEED STREAMS CO2E             0.00000      KG/HR           
    PRODUCT STREAMS CO2E          0.00000      KG/HR           
    NET STREAMS CO2E PRODUCTION   0.00000      KG/HR           
    UTILITIES CO2E PRODUCTION     0.00000      KG/HR           
    TOTAL CO2E PRODUCTION         0.00000      KG/HR           
 ASPEN PLUS   PLAT: WINDOWS   VER: 36.0                   02/13/2020  PAGE 7   
                          ASPEN DISTILLATION MODELS                             
                              U-O-S BLOCK SECTION                               

 BLOCK:  B4       MODEL: RADFRAC (CONTINUED)         



                         **********************
                         ****  INPUT DATA  ****
                         **********************

   ****   INPUT PARAMETERS   ****

    NUMBER OF STAGES                                         8
    ALGORITHM OPTION                                      STANDARD    
    ABSORBER OPTION                                       NO      
    INITIALIZATION OPTION                                 STANDARD    
    HYDRAULIC PARAMETER CALCULATIONS                      NO      
    INSIDE LOOP CONVERGENCE METHOD                        BROYDEN 
    DESIGN SPECIFICATION METHOD                           NESTED  
    MAXIMUM NO. OF OUTSIDE LOOP ITERATIONS                  25
    MAXIMUM NO. OF INSIDE LOOP ITERATIONS                   10
    MAXIMUM NUMBER OF FLASH ITERATIONS                      30
    FLASH TOLERANCE                                          0.000100000
    OUTSIDE LOOP CONVERGENCE TOLERANCE                       0.000100000

   ****   COL-SPECS   ****

    MOLAR VAPOR DIST / TOTAL DIST                            0.0        
    MOLAR REFLUX RATIO                                       3.00000    
    DISTILLATE TO FEED RATIO                                 0.50000    

   ****    PROFILES   ****

    P-SPEC          STAGE   1  PRES, ATM                     1.00000    
                            2                                1.05000    

                          *******************
                          ****  RESULTS  ****
                          *******************


   ***   COMPONENT SPLIT FRACTIONS   ***

                             OUTLET STREAMS 
                             --------------
                  9            10      
    COMPONENT:
    MEOH        .96806       .31937E-01
    H2O         .31937E-01   .96806    
 ASPEN PLUS   PLAT: WINDOWS   VER: 36.0                   02/13/2020  PAGE 8   
                          ASPEN DISTILLATION MODELS                             
                              U-O-S BLOCK SECTION                               

 BLOCK:  B4       MODEL: RADFRAC (CONTINUED)         

 
   ***    SUMMARY OF KEY RESULTS    ***

    TOP STAGE TEMPERATURE          C                        65.0224     
    BOTTOM STAGE TEMPERATURE       C                        96.1416     
    TOP STAGE LIQUID FLOW          KMOL/HR                 150.000      
    BOTTOM STAGE LIQUID FLOW       KMOL/HR                  50.0000     
    TOP STAGE VAPOR FLOW           KMOL/HR                   0.0        
    BOILUP VAPOR FLOW              KMOL/HR                 186.594      
    MOLAR REFLUX RATIO                                       3.00000    
    MOLAR BOILUP RATIO                                       3.73189    
    CONDENSER DUTY (W/O SUBCOOL)   KCAL/HR          -1,700,770.         
    REBOILER DUTY                  KCAL/HR           1,829,130.         

   ****   MAXIMUM FINAL RELATIVE ERRORS   ****

    DEW POINT                       0.24364E-05  STAGE=  6
    BUBBLE POINT                    0.70297E-04  STAGE=  6
    COMPONENT MASS BALANCE          0.91925E-07  STAGE=  4 COMP=H2O     
    ENERGY BALANCE                  0.33734E-04  STAGE=  7


   ****    PROFILES   ****

   **NOTE** REPORTED VALUES FOR STAGE LIQUID AND VAPOR RATES ARE THE FLOWS
            FROM THE STAGE INCLUDING ANY SIDE PRODUCT.

                                          ENTHALPY
 STAGE TEMPERATURE   PRESSURE             CAL/MOL            HEAT DUTY
       C             ATM            LIQUID       VAPOR        KCAL/HR 

   1   65.022        1.0000       -56357.      -47687.      -.17008+07
   2   66.995        1.0500       -56862.      -47853.                
   3   68.364        1.0500       -57850.      -48184.                
   4   70.962        1.0500       -59614.      -48788.                
   5   72.263        1.0500       -60433.      -49081.                
   6   75.977        1.0500       -62461.      -49898.                
   7   85.062        1.0500       -65349.      -51986.                
   8   96.142        1.0500       -66593.      -55213.       .18291+07
 ASPEN PLUS   PLAT: WINDOWS   VER: 36.0                   02/13/2020  PAGE 9   
                          ASPEN DISTILLATION MODELS                             
                              U-O-S BLOCK SECTION                               

 BLOCK:  B4       MODEL: RADFRAC (CONTINUED)         

 STAGE     FLOW RATE                  FEED RATE               PRODUCT RATE
            KMOL/HR                    KMOL/HR                  KMOL/HR 
       LIQUID     VAPOR       LIQUID    VAPOR    MIXED      LIQUID    VAPOR
   1  200.0      0.000                                       50.0000          
   2  148.9      200.0                                                        
   3  145.9      198.9                                                        
   4  256.8      195.9       100.0000                                         
   5  252.9      206.8                                                        
   6  244.3      202.9                                                        
   7  236.6      194.3                                                        
   8  50.00      186.6                                       50.0000          

    ****  MASS FLOW PROFILES  ****

 STAGE     FLOW RATE                  FEED RATE               PRODUCT RATE
            KG/HR                      KG/HR                    KG/HR   
       LIQUID     VAPOR       LIQUID    VAPOR    MIXED      LIQUID    VAPOR
   1  6319.      0.000                                     1579.7093          
   2  4607.      6319.                                                        
   3  4338.      6187.                                                        
   4  7079.      5918.      2502.8720                                         
   5  6716.      6156.                                                        
   6  5874.      5793.                                                        
   7  4801.      4951.                                                        
   8  923.2      3878.                                      923.1626          

                         ****   MOLE-X-PROFILE     ****
   STAGE     MEOH          H2O     
      1    0.96806       0.31937E-01
      2    0.92129       0.78706E-01
      3    0.83525       0.16475    
      4    0.68115       0.31885    
      5    0.60930       0.39070    
      6    0.42953       0.57047    
      7    0.16246       0.83754    
      8    0.31937E-01   0.96806    

                         ****   MOLE-Y-PROFILE     ****
   STAGE     MEOH          H2O     
      1    0.98715       0.12849E-01
      2    0.96806       0.31937E-01
      3    0.93305       0.66949E-01
      4    0.86915       0.13085    
      5    0.83813       0.16187    
      6    0.75161       0.24839    
      7    0.53182       0.46818    
      8    0.19743       0.80257    
 ASPEN PLUS   PLAT: WINDOWS   VER: 36.0                   02/13/2020  PAGE 10  
                          ASPEN DISTILLATION MODELS                             
                              U-O-S BLOCK SECTION                               

 BLOCK:  B4       MODEL: RADFRAC (CONTINUED)         

                         ****   K-VALUES           ****
   STAGE     MEOH          H2O     
      1     1.0197       0.40233    
      2     1.0508       0.40577    
      3     1.1171       0.40637    
      4     1.2760       0.41038    
      5     1.3756       0.41431    
      6     1.7501       0.43537    
      7     3.2735       0.55900    
      8     6.1820       0.82904    

                         ****   MASS-X-PROFILE     ****
   STAGE     MEOH          H2O     
      1    0.98179       0.18211E-01
      2    0.95417       0.45830E-01
      3    0.90017       0.99827E-01
      4    0.79165       0.20835    
      5    0.73501       0.26499    
      6    0.57250       0.42750    
      7    0.25651       0.74349    
      8    0.55425E-01   0.94458    

                         ****   MASS-Y-PROFILE     ****
   STAGE     MEOH          H2O     
      1    0.99273       0.72651E-02
      2    0.98179       0.18211E-01
      3    0.96122       0.38778E-01
      4    0.92196       0.78041E-01
      5    0.90205       0.97951E-01
      6    0.84331       0.15669    
      7    0.66891       0.33109    
      8    0.30437       0.69563    
 ASPEN PLUS   PLAT: WINDOWS   VER: 36.0                   02/13/2020  PAGE 11  
                          ASPEN DISTILLATION MODELS                             
                                 STREAM SECTION                                 

 1 10 2 3 4                                      
 ----------

 STREAM ID               1          10         2          3          4       
 FROM :                  ----       B4         B1         B1         B1      
 TO   :                  B1         ----       B2         B3         B4      

 SUBSTREAM: MIXED   
 PHASE:                  LIQUID     LIQUID     LIQUID     LIQUID     LIQUID 
 COMPONENTS: KMOL/HR         
   MEOH                  50.0000     1.5968    50.0000    50.0000    50.0000
   H2O                   50.0000    48.4032    50.0000    50.0000    50.0000
   ETOH                   0.0        0.0        0.0        0.0        0.0   
 COMPONENTS: KG/HR           
   MEOH                1602.1080    51.1662  1602.1080  1602.1080  1602.1080
   H2O                  900.7640   871.9965   900.7640   900.7640   900.7640
   ETOH                   0.0        0.0        0.0        0.0        0.0   
 TOTAL FLOW:     
   KMOL/HR              100.0000    50.0000   100.0000   100.0000   100.0000
   KG/HR               2502.8720   923.1627  2502.8720  2502.8720  2502.8720
   L/HR                2949.1655  1018.4133  2949.1655  2949.1655  2949.1655
 STATE VARIABLES:
   TEMP   C              25.0000    96.1416    25.0000    25.0000    25.0000
   PRES   ATM             1.4000     1.0500     1.4000     1.4000     1.4000
   VFRAC                  0.0        0.0        0.0        0.0        0.0   
   LFRAC                  1.0000     1.0000     1.0000     1.0000     1.0000
   SFRAC                  0.0        0.0        0.0        0.0        0.0   
 ENTHALPY:       
   CAL/MOL            -6.2759+04 -6.6593+04 -6.2759+04 -6.2759+04 -6.2759+04
   CAL/GM             -2507.4681 -3606.7886 -2507.4681 -2507.4681 -2507.4681
   KCAL/HR            -6.2759+06 -3.3297+06 -6.2759+06 -6.2759+06 -6.2759+06
 ENTROPY:        
   CAL/MOL-K            -47.5633   -35.4287   -47.5633   -47.5633   -47.5633
   CAL/GM-K              -1.9003    -1.9189    -1.9003    -1.9003    -1.9003
 DENSITY:        
   MOL/CC              3.3908-02  4.9096-02  3.3908-02  3.3908-02  3.3908-02
   GM/CC                  0.8487     0.9065     0.8487     0.8487     0.8487
 AVG MW                  25.0287    18.4633    25.0287    25.0287    25.0287
 ASPEN PLUS   PLAT: WINDOWS   VER: 36.0                   02/13/2020  PAGE 12  
                          ASPEN DISTILLATION MODELS                             
                                 STREAM SECTION                                 

 5 6 7 8 9                                       
 ---------

 STREAM ID               5          6          7          8          9       
 FROM :                  B2         B2         B3         B3         B4      
 TO   :                  ----       ----       ----       ----       ----    

 SUBSTREAM: MIXED   
 PHASE:                  LIQUID     LIQUID     LIQUID     LIQUID     LIQUID 
 COMPONENTS: KMOL/HR         
   MEOH                  47.5000     2.5000    48.9120     1.0880    48.4032
   H2O                    2.5000    47.5000     1.0880    48.9120     1.5968
   ETOH                   0.0        0.0        0.0        0.0        0.0   
 COMPONENTS: KG/HR           
   MEOH                1522.0026    80.1054  1567.2457    34.8623  1550.9418
   H2O                   45.0382   855.7258    19.6011   881.1629    28.7675
   ETOH                   0.0        0.0        0.0        0.0        0.0   
 TOTAL FLOW:     
   KMOL/HR               50.0000    50.0000    50.0000    50.0000    50.0000
   KG/HR               1567.0408   935.8312  1586.8464   916.0254  1579.7093
   L/HR                2097.6911  1049.4738  2129.1719  1016.6482  2117.8440
 STATE VARIABLES:
   TEMP   C              65.3006   101.9389    64.8665   105.8155    65.0224
   PRES   ATM             1.0000     1.4000     1.0000     1.4000     1.0000
   VFRAC                  0.0        0.0        0.0        0.0        0.0   
   LFRAC                  1.0000     1.0000     1.0000     1.0000     1.0000
   SFRAC                  0.0        0.0        0.0        0.0        0.0   
 ENTHALPY:       
   CAL/MOL            -5.6565+04 -6.6274+04 -5.6240+04 -6.6514+04 -5.6357+04
   CAL/GM             -1804.8284 -3540.9381 -1772.0798 -3630.5556 -1783.7863
   KCAL/HR            -2.8282+06 -3.3137+06 -2.8120+06 -3.3257+06 -2.8179+06
 ENTROPY:        
   CAL/MOL-K            -53.2962   -35.3771   -53.9622   -34.7881   -53.7167
   CAL/GM-K              -1.7005    -1.8901    -1.7003    -1.8989    -1.7002
 DENSITY:        
   MOL/CC              2.3836-02  4.7643-02  2.3483-02  4.9181-02  2.3609-02
   GM/CC                  0.7470     0.8917     0.7453     0.9010     0.7459
 AVG MW                  31.3408    18.7166    31.7369    18.3205    31.5942
 ASPEN PLUS   PLAT: WINDOWS   VER: 36.0                   02/13/2020  PAGE 13  
                          ASPEN DISTILLATION MODELS                             
                             PROBLEM STATUS SECTION                             

 BLOCK STATUS                            
 ------------

 ****************************************************************************
 *                                                                          *
 * Calculations were completed normally                                     *
 *                                                                          *
 * All Unit Operation blocks were completed normally                        *
 *                                                                          *
 * All streams were flashed normally                                        *
 *                                                                          *
 ****************************************************************************
